REMARK  6 active torsions:
REMARK  status: ('A' for Active; 'I' for Inactive)
REMARK    1  A    between atoms: C1_1  and  O1_7 
REMARK    2  A    between atoms: C2_2  and  O2_9 
REMARK    3  A    between atoms: C3_3  and  O3_11 
REMARK    4  A    between atoms: C4_4  and  O4_13 
REMARK    5  A    between atoms: C5_5  and  C6_6 
REMARK    6  A    between atoms: C6_6  and  O6_16 
ROOT
ATOM      1  C1  GAL A 900     -24.384  -8.175  15.528  1.00  9.01     0.288 C 
ATOM      2  C2  GAL A 900     -23.566  -6.870  15.386  1.00  7.76     0.204 C 
ATOM      3  C3  GAL A 900     -22.646  -6.653  16.603  1.00  6.90     0.183 C 
ATOM      4  C4  GAL A 900     -23.404  -6.794  17.915  1.00  6.36     0.180 C 
ATOM      5  C5  GAL A 900     -24.086  -8.191  17.911  1.00  7.19     0.179 C 
ATOM      6  O5  GAL A 900     -24.997  -8.227  16.818  1.00  8.23    -0.349 OA
ENDROOT
BRANCH   5   7
ATOM      7  C6  GAL A 900     -24.868  -8.559  19.176  1.00  7.17     0.198 C 
BRANCH   7   8
ATOM      8  O6  GAL A 900     -24.038  -8.550  20.361  1.00  6.90    -0.398 OA
ATOM      9  H6  GAL A 900     -24.523  -8.778  21.145  1.00  0.00     0.209 HD
ENDBRANCH   7   8
ENDBRANCH   5   7
BRANCH   4  10
ATOM     10  O4  GAL A 900     -24.390  -5.767  18.086  1.00  6.06    -0.390 OA
ATOM     11  H4  GAL A 900     -24.863  -5.855  18.905  1.00  0.00     0.210 HD
ENDBRANCH   4  10
BRANCH   1  12
ATOM     12  O1  GAL A 900     -25.506  -8.215  14.625  1.00 12.52    -0.369 OA
ATOM     13  H1  GAL A 900     -26.008  -9.017  14.712  1.00  0.00     0.212 HD
ENDBRANCH   1  12
BRANCH   3  14
ATOM     14  O3  GAL A 900     -22.015  -5.379  16.597  1.00  6.78    -0.390 OA
ATOM     15  H3  GAL A 900     -21.448  -5.245  17.347  1.00  0.00     0.210 HD
ENDBRANCH   3  14
BRANCH   2  16
ATOM     16  O2  GAL A 900     -22.755  -6.900  14.227  1.00  8.77    -0.388 OA
ATOM     17  H2  GAL A 900     -22.253  -6.098  14.140  1.00  0.00     0.210 HD
ENDBRANCH   2  16
TORSDOF 6
